*----------------------------------------------------------------------
* SPICE Model generated by Murata Manufacturing Co., Ltd.
* Copyright(C) Murata Manufacturing Co., Ltd.
* Description :0603M(0201)/X7R/4700pF/16V
* Murata P/N :GRM033R71C472KE14
* Property : C = 4700[pF]
* Data Generated on Nov 6, 2018
*----------------------------------------------------------------------
* Applicable Conditions:
*   Frequency Range = 100Hz-6GHz
*   Temperature = 25 degC
*   DC Bias Voltage = 0V
*   Small Signal Operation
*----------------------------------------------------------------------
.SUBCKT GRM033R71C472KE14 port1 port2
C1 port1 11 4.78e-9
L2 11 12 2.10e-10
R3 12 13 1.03e-1
C4 13 14 4.70e-7
R4 13 14 2.85e+3
C5 14 15 5.61e-7
R5 14 15 272
C6 15 16 5.58e-7
R6 15 16 23.7
C7 16 17 3.68e-7
R7 16 17 3.60
C8 17 18 2.23e-7
R8 17 18 6.17e-1
C9 18 19 2.36e-7
R9 18 19 9.83e-2
L10 19 20 4.26e-11
R10 19 20 2.65e-1
C11 20 21 8.59e-9
L11 20 21 9.53e-12
R11 20 21 4.47e-2
C12 21 port2 9.05e-12
L12 21 port2 2.55e-11
R12 21 port2 2.08
R100 port1 11 2.00e+9
.ENDS GRM033R71C472KE14