*----------------------------------------------------------------------
* SPICE Model generated by Murata Manufacturing Co., Ltd.
* Copyright(C) Murata Manufacturing Co., Ltd.
* Description :1005M(0402)/X7R/10000pF/50V
* Murata P/N :GRM155R71H103KA88
* Property : C = 10000[pF]
* Data Generated on Jan 10, 2017
*----------------------------------------------------------------------
* Applicable Conditions:
*   Frequency Range = 100kHz-6GHz
*   Temperature = 25 degC
*   DC Bias Voltage = 0V
*   Small Signal Operation
*----------------------------------------------------------------------
.SUBCKT GRM155R71H103KA88 port1 port2
C1 port1 11 9.66e-9
L2 11 12 1.81e-10
R3 12 13 4.87e-2
C4 13 14 8.69e-7
R4 13 14 1.77
C5 14 15 7.39e-7
R5 14 15 3.60e-1
C6 15 16 9.13e-7
R6 15 16 6.29e-2
C7 16 17 5.45e-7
R7 16 17 2.36e-2
L8 17 18 5.77e-11
R8 17 18 2.28e-1
C9 18 19 1.55e-7
L9 18 19 4.43e-12
R9 18 19 1.53e-2
C10 19 20 9.52e-9
L10 19 20 3.19e-11
R10 19 20 7.37e-2
C11 20 port2 4.31e-12
L11 20 port2 6.52e-11
R11 20 port2 11.1
R100 port1 11 1.00e+10
.ENDS GRM155R71H103KA88