*----------------------------------------------------------------------
* SPICE Model generated by Murata Manufacturing Co., Ltd.
* Copyright(C) Murata Manufacturing Co., Ltd.
* Description :1005M(0402)/X5R/2.2uF/16V
* Murata P/N :GRM155R61C225KE11
* Property : C = 2.2[uF]
* Data Generated on Oct 1, 2019
*----------------------------------------------------------------------
* Applicable Conditions:
*   Frequency Range = 100Hz-6GHz
*   Temperature = 25 degC
*   DC Bias Voltage = 0V
*   Small Signal Operation
*----------------------------------------------------------------------
.SUBCKT GRM155R61C225KE11 port1 port2
C1 port1 11 1.73e-6
L2 11 12 1.79e-10
R3 12 13 6.35e-3
C4 13 14 6.00e-5
R4 13 14 85.7
C5 14 15 9.14e-5
R5 14 15 5.82
C6 15 16 8.03e-5
R6 15 16 9.40e-1
C7 16 17 7.76e-5
R7 16 17 1.47e-1
C8 17 18 7.79e-5
R8 17 18 2.69e-2
C9 18 19 4.69e-5
R9 18 19 8.75e-3
L10 19 20 1.90e-11
R10 19 20 2.12e-1
L11 20 21 3.14e-11
R11 20 21 6.04e-2
L12 21 22 1.38e-10
R12 21 22 2.71e-2
C13 22 23 6.24e-6
L13 22 23 3.27e-11
R13 22 23 4.67e-3
C14 23 24 2.47e-6
L14 23 24 3.93e-11
R14 23 24 6.91e-3
C15 24 port2 4.51e-11
L15 24 port2 8.52e-12
R15 24 port2 9.19e-1
R100 port1 11 2.27e+7
.ENDS GRM155R61C225KE11