*----------------------------------------------------------------------
* SPICE Model generated by Murata Manufacturing Co., Ltd.
* Copyright(C) Murata Manufacturing Co., Ltd.
* Description :2012M(0805)/X5R/22uF/10V
* Murata P/N :GRM21BR61A226ME44
* Property : C = 22[uF]
* Data Generated on Jan 8, 2019
*----------------------------------------------------------------------
* Applicable Conditions:
*   Frequency Range = 100Hz-6GHz
*   Temperature = 25 degC
*   DC Bias Voltage = 0V
*   Small Signal Operation
*----------------------------------------------------------------------
.SUBCKT GRM21BR61A226ME44 port1 port2
C1 port1 11 1.70e-5
L2 11 12 1.60e-10
R3 12 13 2.11e-3
C4 13 14 6.67e-4
R4 13 14 7.95
C5 14 15 7.65e-4
R5 14 15 7.74e-1
C6 15 16 7.03e-4
R6 15 16 9.99e-2
C7 16 17 6.45e-4
R7 16 17 1.24e-2
C8 17 18 6.19e-4
R8 17 18 1.97e-3
L9 18 19 1.62e-11
R9 18 19 5.44e-2
L10 19 20 3.66e-11
R10 19 20 2.02e-2
L11 20 21 3.37e-10
R11 20 21 1.34e-2
C12 21 22 5.83e-5
L12 21 22 6.41e-11
R12 21 22 3.35e-3
C13 22 23 2.26e-5
L13 22 23 8.31e-11
R13 22 23 3.61e-3
C14 23 port2 4.77e-12
L14 23 port2 8.46e-11
R14 23 port2 14.7
R100 port1 11 2.27e+6
.ENDS GRM21BR61A226ME44